Version 4
SHEET 1 880 680
TEXT 128 16 Left 2 !.lib cd4000.lib
TEXT 120 264 Left 2 !.tran 0 20ms 0 1u uic
